Circuit: * \\vmware-host\Shared Folders\Transcend 256 GB\Google Drive\0 - School Drive\2017 - A - Spring\ECE 310 - Microelectronics\ECE---310L\Lab 8\open_feedback_switch-mode_power_supply.asc

Limiting rise time of source vsw to 3.2e-007
Limiting fall time of source vsw to 3.2e-007
Direct Newton iteration for .op point succeeded.
.step d=0.08
.step d=0.09
.step d=0.1

Date: Fri Mar 31 10:47:16 2017
Total elapsed time: 15.276 seconds.

tnom = 27
temp = 27
method = modified trap
totiter = 1509879
traniter = 1509867
tranpoints = 616623
accept = 455032
rejected = 161591
matrix size = 25
fillins = 0
solver = Normal
Matrix Compiler1: 1.75 KB object code size  0.7/0.3/[0.2]
Matrix Compiler2: 2.20 KB object code size  0.2/0.9/[0.2]


