Circuit: * \\vmware-host\Shared Folders\Transcend 256 GB\Google Drive\0 - School Drive\2017 - A - Spring\ECE 310 - Microelectronics\ECE---310L\Lab 8\source_follower.asc

Direct Newton iteration for .op point succeeded.

Date: Wed Mar 29 19:31:46 2017
Total elapsed time: 0.665 seconds.

tnom = 27
temp = 27
method = modified trap
totiter = 200555
traniter = 200546
tranpoints = 100021
accept = 100021
rejected = 0
matrix size = 11
fillins = 1
solver = Normal
Matrix Compiler1:      46 opcodes  0.2/[0.1]/0.1
Matrix Compiler2: 985 bytes object code size  0.2/0.3/[0.1]


